  Page 1                                    Mon Sep 19 12:02:13 2022

  ******************************************************************
  *                           E P A N E T                          *
  *                   Hydraulic and Water Quality                  *
  *                   Analysis for Pipe Networks                   *
  *                         Version 2.2                            *
  ******************************************************************
  
  Analysis begun Mon Sep 19 12:02:13 2022

  Analysis ended Mon Sep 19 12:02:13 2022
